Circuit: * I:\LTSpice\GmCMaxFlatIdeal.asc

ERROR: Node N005 is floating and connected to current source G10
ERROR: Node N001 is floating and connected to current source G4
ERROR: Node N003 is floating and connected to current source G12
ERROR: Node N006 is floating and connected to current source G3
ERROR: Node N002 is floating and connected to current source G8
ERROR: Node N004 is floating and connected to current source G14
ERROR: Node VOUT is floating and connected to current source G7


Date: Tue Apr 30 12:28:49 2019
Total elapsed time: 0.131 seconds.

tnom = 27
temp = 27
method = trap
totiter = 0
traniter = 0
tranpoints = 0
accept = 0
rejected = 0
matrix size = 9
fillins = 6
solver = Normal

