Circuit: * I:\LTSpice\GmCMaxFlatTrans.asc

Ignoring BSIM parameter XL
Ignoring BSIM parameter XW
Ignoring BSIM parameter XL
Ignoring BSIM parameter XW
Warning: Pd = 0 is less than W.
Warning: Ps = 0 is less than W.
Warning: Pd = 0 is less than W.
Warning: Ps = 0 is less than W.
Direct Newton iteration for .op point succeeded.

Date: Tue Apr 30 12:30:00 2019
Total elapsed time: 1.817 seconds.

tnom = 27
temp = 27
method = trap
totiter = 13
traniter = 0
tranpoints = 0
accept = 0
rejected = 0
matrix size = 176
fillins = 130
solver = Normal
Matrix Compiler1:     847 opcodes
Matrix Compiler2: 15.86 KB object code size
