Circuit: * I:\LTSpice\MaxFlat.asc


Date: Tue Apr 30 12:08:55 2019
Total elapsed time: 0.093 seconds.

tnom = 27
temp = 27
method = trap
totiter = 0
traniter = 0
tranpoints = 0
accept = 0
rejected = 0
matrix size = 7
fillins = 0
solver = Normal

